9
Generated by ABCluster
   C     -0.86711000     -0.01035000     -0.01281000
   O     -1.48998000      0.67003000      0.85118000
   O     -1.26738000     -0.89721000     -0.82835000
   C      1.48408000     -0.90764000      0.51734000
   H      1.30570000     -1.81626000     -0.05816000
   H      2.54027000     -0.64026000      0.49515000
   H      1.16070000     -1.09735000      1.54258000
   C      0.64775000      0.21192000     -0.07495000
   O      1.18299000      1.20097000     -0.59246000
par_all36_prot  q       epsilon (kJ/mol)        sigma   (AA)
0.2430  0.2929  3.5636  #       CG2O3
-0.5384 0.85    3.0291  #       OG2D2
-0.5438 0.85    3.0291  #       OG2D2
-0.2187 0.3264  3.6527  #       CG331
0.0884  0.1004  2.3876  #       HGA3
0.0746  0.1004  2.3876  #       HGA3
0.0837  0.1004  2.3876  #       HGA3
0.2284  0.3766  3.5636  #       CG2O5
-0.4173 0.8     3.0291  #       OG2D3
